LAMMPS (17 Nov 2016)
dimension			2
units			lj
atom_style			molecular
boundary p p p
atom_modify			sort 0 1

read_data			p_1_data.data
  orthogonal box = (-200 -50 -50) to (200 50 50)
  reading atoms ...
  125 atoms
  scanning bonds ...
  scanning angles ...
  reading bonds ...
  119 bonds
  reading angles ...
  118 angles
neigh_modify			every 1 delay 1
bond_style			harmonic
bond_coeff			1 30 1.3
angle_style			harmonic
angle_coeff			1 30 180
pair_style			lj/cut 2.5
pair_coeff			* * 0 0 0
pair_coeff			1 4 6.5 1.5 3.75
pair_coeff			1 5 8.75 1.5 3.75
pair_coeff			1 6 2.75 1.5 3.75
pair_coeff			1 7 8.625 1.5 3.75
pair_coeff			1 3 100 4.5 5.0
pair_coeff			1 1 100 1.0 1.12246
pair_coeff			1 2 100 1.0 1.12246
pair_modify			shift yes
dump			id all xyz 100 p_1_out.xyz
group			move type 1
118 atoms in group move
group			anchor type 2
2 atoms in group anchor
group			protein type 3 4 5 6 7
5 atoms in group protein
velocity move create 1.0 1
velocity protein set 0 -15 0
fix			0 all enforce2d
fix			1 move nph x 0.0 0.0 1.0 y 0.0 0.0 1.0 couple none
fix			2 protein rigid/nve molecule
1 rigid bodies with 5 atoms
fix			3 all langevin 1 1 1 1000

thermo			300
timestep			0.005
run			60000
  1 neighbor list requests
  update every 1 steps, delay 1 steps, check yes
Step Temp E_pair E_mol TotEng Press Volume
0    3.8091286            0    3.2213849    6.8933849 0.0094445396        40000
Averages over the last 101 of 201 rows, steps 30000 to 60000:
Temp E_pair E_mol TotEng Press Volume
0.996194 -0.139766 4.61818 5.43874 0.000129886 119308
Loop time of 2.10229 on 1 procs for 60000 steps with 125 atoms
